*SPEF "1481-1998"
*DESIGN "fifo"
*DATE "Sat May  2 02:52:43 2026"
*VENDOR "Synopsys, Inc."
*PROGRAM "icc2 /tools/icc2/U-2022.12-SP3/linux64/nwtn/bin/icc2_exec"
*VERSION "U-2022.12-SP3 Apr 18, 2023"
*DESIGN_FLOW "ICC2 SPEF DR"
*DIVIDER /
*DELIMITER :
*BUS_DELIMITER [ ]
*T_UNIT 1 NS
*C_UNIT 1 FF
*R_UNIT 1 OHM
*L_UNIT 1 HENRY

// XY_UNIT 1 UM
// PARASITIC_TECH p2 at 125.000 degree

*NAME_MAP
*1 clk
*2 rst_n
*3 wr_en
*4 rd_en
*5 data_in[7]
*6 data_in[6]
*7 data_in[5]
*8 data_in[4]
*9 data_in[3]
*10 data_in[2]
*11 data_in[1]
*12 data_in[0]
*13 data_out[7]
*14 data_out[6]
*15 data_out[5]
*16 data_out[4]
*17 data_out[3]
*18 data_out[2]
*19 data_out[1]
*20 data_out[0]
*21 full
*22 empty
*23 VDD
*24 VSS
*25 mem_reg[15][1]
*26 mem_reg[15][2]
*27 mem_reg[15][3]
*28 mem_reg[15][4]
*29 mem_reg[15][5]
*30 mem_reg[15][6]
*31 mem_reg[15][7]
*32 mem_reg[15][0]
*33 mem_reg[13][0]
*34 mem_reg[13][1]
*35 mem_reg[13][2]
*36 mem_reg[13][3]
*37 mem_reg[13][4]
*38 mem_reg[13][5]
*39 mem_reg[13][6]
*40 mem_reg[13][7]
*41 mem_reg[11][0]
*42 mem_reg[11][1]
*43 mem_reg[11][2]
*44 mem_reg[11][3]
*45 mem_reg[11][4]
*46 mem_reg[11][5]
*47 mem_reg[11][6]
*48 mem_reg[11][7]
*49 mem_reg[9][2]
*50 mem_reg[9][3]
*51 mem_reg[9][4]
*52 mem_reg[9][5]
*53 mem_reg[9][6]
*54 mem_reg[9][7]
*55 mem_reg[14][0]
*56 mem_reg[14][1]
*57 mem_reg[14][4]
*58 mem_reg[14][5]
*59 mem_reg[14][6]
*60 mem_reg[14][7]
*61 mem_reg[12][5]
*62 mem_reg[12][6]
*63 mem_reg[12][7]
*64 mem_reg[12][0]
*65 mem_reg[12][1]
*66 mem_reg[12][2]
*67 mem_reg[12][3]
*68 mem_reg[12][4]
*69 mem_reg[10][2]
*70 mem_reg[10][3]
*71 mem_reg[10][4]
*72 mem_reg[10][5]
*73 mem_reg[10][6]
*74 mem_reg[10][7]
*75 mem_reg[8][0]
*76 mem_reg[8][1]
*77 mem_reg[8][4]
*78 mem_reg[8][5]
*79 mem_reg[8][6]
*80 mem_reg[8][7]
*81 mem_reg[7][2]
*82 mem_reg[7][3]
*83 mem_reg[7][4]
*84 mem_reg[7][5]
*85 mem_reg[7][6]
*86 mem_reg[7][7]
*87 mem_reg[5][2]
*88 mem_reg[5][3]
*89 mem_reg[5][4]
*90 mem_reg[5][5]
*91 mem_reg[5][6]
*92 mem_reg[5][7]
*93 mem_reg[3][0]
*94 mem_reg[3][1]
*95 mem_reg[3][2]
*96 mem_reg[3][3]
*97 mem_reg[3][4]
*98 mem_reg[3][5]
*99 mem_reg[3][6]
*100 mem_reg[3][7]
*101 mem_reg[1][0]
*102 mem_reg[1][1]
*103 mem_reg[1][2]
*104 mem_reg[1][3]
*105 mem_reg[1][4]
*106 mem_reg[1][5]
*107 mem_reg[1][6]
*108 mem_reg[1][7]
*109 mem_reg[6][0]
*110 mem_reg[6][1]
*111 mem_reg[6][2]
*112 mem_reg[6][3]
*113 mem_reg[6][4]
*114 mem_reg[6][5]
*115 mem_reg[6][6]
*116 mem_reg[6][7]
*117 mem_reg[4][0]
*118 mem_reg[4][1]
*119 mem_reg[4][2]
*120 mem_reg[4][3]
*121 mem_reg[4][4]
*122 mem_reg[4][5]
*123 mem_reg[4][6]
*124 mem_reg[4][7]
*125 mem_reg[2][0]
*126 mem_reg[2][1]
*127 mem_reg[2][2]
*128 mem_reg[2][3]
*129 mem_reg[2][4]
*130 mem_reg[2][5]
*131 mem_reg[2][6]
*132 mem_reg[2][7]
*133 mem_reg[0][0]
*134 mem_reg[0][1]
*135 mem_reg[0][2]
*136 mem_reg[0][3]
*137 mem_reg[0][4]
*138 mem_reg[0][5]
*139 mem_reg[0][6]
*140 mem_reg[0][7]
*141 rd_ptr_reg[3]
*142 rd_ptr_reg[4]
*143 wr_ptr_reg[4]
*144 rd_ptr_reg[0]
*145 rd_ptr_reg[1]
*146 wr_ptr_reg[3]
*147 data_out_reg[1]
*148 data_out_reg[2]
*149 data_out_reg[7]
*150 data_out_reg[3]
*151 wr_ptr_reg[2]
*152 data_out_reg[5]
*153 data_out_reg[4]
*154 wr_ptr_reg[0]
*155 data_out_reg[0]
*156 wr_ptr_reg[1]
*157 data_out_reg[6]
*158 rd_ptr_reg[2]
*159 mem_reg[10][0]
*160 mem_reg[9][0]
*161 mem_reg[10][1]
*162 mem_reg[9][1]
*163 mem_reg[8][2]
*164 mem_reg[14][2]
*165 mem_reg[8][3]
*166 mem_reg[14][3]
*167 mem_reg[5][0]
*168 mem_reg[7][0]
*169 mem_reg[5][1]
*170 mem_reg[7][1]
*171 HFSINV_195_f_24
*172 U304
*173 HFSINV_686_f_26
*174 U305
*175 HFSINV_786_f_28
*176 U306
*177 HFSINV_665_f_30
*178 U317
*179 ctmTdsLR_1_2025
*180 ctmTdsLR_2_2026
*181 ctmTdsLR_1_1926
*182 ctmTdsLR_1_1999
*183 copt_h_inst_2053
*184 ctmTdsLR_4_1929
*185 ctmTdsLR_5_1930
*186 ctmTdsLR_1_1931
*187 ctmTdsLR_2_1932
*188 copt_h_inst_2054
*189 ctmTdsLR_2_2000
*190 ctmTdsLR_1_1935
*191 ctmTdsLR_1_411
*192 HFSINV_478_f_32
*193 HFSINV_533_f_33
*194 ctmTdsLR_1_384_roptpi_2037
*195 HFSINV_269_f_35
*196 ctmTdsLR_1_363_roptpi_2038
*197 HFSINV_274_f_37
*198 HFSINV_401_f_38
*199 ctmTdsLR_1_2027
*200 HFSINV_733_f_22
*201 HFSINV_292_f_40
*202 ctmTdsLR_2_2028
*203 HFSINV_281_f_42
*204 ctmTdsLR_1_2029
*205 HFSINV_219_f_44
*206 ctmTdsLR_2_2030
*207 HFSINV_232_f_46
*208 ctmTdsLR_1_403_roptpi_2039
*209 HFSINV_416_f_48
*210 ctmTdsLR_1_392_roptpi_2040
*211 HFSINV_251_f_50
*212 ctmTdsLR_1_355_roptpi_2041
*213 HFSINV_435_f_52
*214 ctmTdsLR_1_2031
*215 ctmTdsLR_2_2032
*216 HFSINV_369_f_54
*217 ctmTdsLR_1_389_roptpi_2042
*218 HFSINV_24_fp_56
*219 HFSINV_7_fp_57
*220 ctmTdsLR_2_412
*221 HFSINV_859_f_59
*222 ctmTdsLR_1_2003
*223 ctmTdsLR_2_2004
*224 buf_drc_cln1876
*225 ctmTdsLR_1_1903
*226 ctmTdsLR_2_1904
*227 ctmTdsLR_3_1905
*228 ctmTdsLR_4_1906
*229 ctmTdsLR_1_1907
*230 copt_h_inst_2055
*231 copt_h_inst_2056
*232 ctmTdsLR_1_2001
*233 HFSINV_490_fp_20
*234 ctmTdsLR_2_2002
*235 U303
*236 copt_h_inst_2057
*237 copt_h_inst_2058
*238 ctmTdsLR_1_1959
*239 ctmTdsLR_3_352
*240 ctmTdsLR_1_2005
*241 ctmTdsLR_2_2006
*242 ctmTdsLR_1_1960
*243 copt_h_inst_2059
*244 copt_h_inst_2060
*245 ctmTdsLR_1_2007
*246 ctmTdsLR_2_2008
*247 ctmTdsLR_1_2009
*248 copt_h_inst_2061
*249 ctmTdsLR_1_1961
*250 ctmTdsLR_3_360
*251 ctmTdsLR_2_2010
*252 ctmTdsLR_1_2011
*253 ctmTdsLR_1_1962
*254 ropt_h_inst_2160
*255 copt_h_inst_2063
*256 ctmTdsLR_2_2012
*257 ctmTdsLR_1_2013
*258 ctmTdsLR_2_2014
*259 copt_h_inst_2064
*260 copt_h_inst_2065
*261 ctmTdsLR_2_1963
*262 ctmTdsLR_3_368
*263 ctmTdsLR_1_2015
*264 ctmTdsLR_2_2016
*265 ropt_h_inst_2161
*266 ropt_h_inst_2162
*267 ctmTdsLR_1_2017
*268 ctmTdsLR_2_2018
*269 ctmTdsLR_1_2019
*270 ropt_h_inst_2163
*271 ctmTdsLR_3_1964
*272 ropt_h_inst_2164
*273 ctmTdsLR_3_376
*274 ctmTdsLR_2_2020
*275 ctmTdsLR_1_1966
*276 ropt_h_inst_2165
*277 ctmTdsLR_1_1967
*278 ctmTdsLR_3_381
*279 ctmTdsLR_1_2021
*280 ctmTdsLR_2_2022
*281 ctmTdsLR_2_1968
*282 ropt_h_inst_2166
*283 ropt_h_inst_2167
*284 ctmTdsLR_3_1969
*285 ctmTdsLR_3_386
*286 ctmTdsLR_1_2023
*287 ropt_h_inst_2168
*288 ropt_h_inst_2169
*289 ctmTdsLR_2_2024
*290 ctmTdsLR_1_2033
*291 ctmTdsLR_2_2034
*292 ropt_h_inst_2170
*293 ctmTdsLR_1_2035
*294 ctmTdsLR_2_2036
*295 copt_gre_h_inst_2159
*296 ctmTdsLR_1_395_roptpi_2043
*297 ctmTdsLR_1_347_roptpi_2044
*298 ropt_h_inst_2171
*299 ctmTdsLR_1_1971
*300 ctmTdsLR_3_400
*301 ctmTdsLR_1_379_roptpi_2045
*302 HFSINV_7_f_0
*303 HFSINV_12_fp_11
*304 U469
*305 ctmTdsLR_1_406_roptpi_2046
*306 U471
*307 ctmTdsLR_1_366_roptpi_2047
*308 ctmTdsLR_1_398_roptpi_2048
*309 ctmTdsLR_2_1908
*310 ZCTSBUF_6394_f_1413
*311 U475
*312 ctmTdsLR_1_371_roptpi_2049
*313 U477
*314 ctmTdsLR_1_1972
*315 ctmTdsLR_1_350_roptpi_2050
*316 ctmTdsLR_1_358_roptpi_2051
*317 ctmTdsLR_2_1973
*318 ctmTdsLR_3_408
*319 ctmTdsLR_1_374_roptpi_2052
*320 ctmTdsLR_3_1974
*321 ctmTdsLR_1_1909
*322 ctmTdsLR_2_1910
*323 ctmTdsLR_3_1911
*324 ctmTdsLR_1_1912
*325 ctmTdsLR_2_1913
*326 HFSINV_7_f_2
*327 U497
*328 U498
*329 ctmTdsLR_1_1914
*330 ctmTdsLR_2_1915
*331 ctmTdsLR_1_1916
*332 ctmTdsLR_2_1917
*333 ctmTdsLR_1_1918
*334 ctmTdsLR_2_1919
*335 ctmTdsLR_1_1920
*336 ctmTdsLR_2_1921
*337 ctmTdsLR_1_1922
*338 ctmTdsLR_2_1923
*339 ctmTdsLR_1_1924
*340 ctmTdsLR_2_1925
*341 ctmTdsLR_2_1936
*342 ctmTdsLR_1_1939
*343 ctmTdsLR_2_1940
*344 HFSINV_19_fp_4
*345 ctmTdsLR_1_1943
*346 U522
*347 U523
*348 U524
*349 U525
*350 U526
*351 ctmTdsLR_2_1944
*352 U528
*353 HFSINV_2_fp_8
*354 U531
*355 U532
*356 U533
*357 U534
*358 U535
*359 U536
*360 U537
*361 U538
*362 U539
*363 U540
*364 U541
*365 U542
*366 U543
*367 U544
*368 U545
*369 U546
*370 U547
*371 U548
*372 U549
*373 U550
*374 U551
*375 U552
*376 U553
*377 U554
*378 U555
*379 U556
*380 U557
*381 U558
*382 U559
*383 U560
*384 U561
*385 U562
*386 U563
*387 U564
*388 U565
*389 U566
*390 U567
*391 U568
*392 U569
*393 U570
*394 U571
*395 U572
*396 U573
*397 U574
*398 U575
*399 U576
*400 U577
*401 U578
*402 U579
*403 U580
*404 U581
*405 U582
*406 U583
*407 U584
*408 U585
*409 U586
*410 U587
*411 U588
*412 U589
*413 U590
*414 U591
*415 U592
*416 U593
*417 U594
*418 U595
*419 U596
*420 U597
*421 U598
*422 U599
*423 U600
*424 U601
*425 U602
*426 U603
*427 U604
*428 U605
*429 U606
*430 U607
*431 U608
*432 U609
*433 U610
*434 U611
*435 U612
*436 U613
*437 U614
*438 U615
*439 U616
*440 U617
*441 U618
*442 U619
*443 U620
*444 U621
*445 U622
*446 U623
*447 U624
*448 U625
*449 U626
*450 U627
*451 U628
*452 U629
*453 U630
*454 U631
*455 U632
*456 U633
*457 U634
*458 U635
*459 U636
*460 U637
*461 U638
*462 U639
*463 U640
*464 U641
*465 U642
*466 U643
*467 U644
*468 U645
*469 U646
*470 U647
*471 U648
*472 U649
*473 U650
*474 U651
*475 U652
*476 U653
*477 U654
*478 U655
*479 U656
*480 U657
*481 U658
*482 U659
*483 U660
*484 ctmTdsLR_1_1947
*485 ctmTdsLR_2_1948
*486 ctmTdsLR_1_1951
*487 ctmTdsLR_2_1952
*488 ctmTdsLR_1_1955
*489 U670
*490 U671
*491 U672
*492 ctmTdsLR_2_1956
*493 ctmTdsLR_1_1976
*494 ctmTdsLR_1_1977
*495 ctmTdsLR_2_1978
*496 ctmTdsLR_3_1979
*497 ZCTSBUF_6484_f_1477
*498 ctmTdsLR_1_1981
*499 U682
*500 U683
*501 U684
*502 ctmTdsLR_1_1982
*503 ctmTdsLR_2_1983
*504 ctmTdsLR_3_1984
*505 ctmTdsLR_1_1986
*506 ctmTdsLR_1_1987
*507 ctmTdsLR_2_1988
*508 ctmTdsLR_3_1989
*509 ctmTdsLR_1_1991
*510 U694
*511 U695
*512 U696
*513 ctmTdsLR_2_1992
*514 ctmTdsLR_3_1993
*515 ctmTdsLR_1_1995
*516 ctmTdsLR_2_1996
*517 ctmTdsLR_3_1997
*518 U707
*519 U708
*520 U717
*521 U718
*522 U719
*523 U728
*524 U729
*525 U730
*526 U738
*527 U739
*528 U740
*529 ZCTSBUF_6521_f_1555
*530 U748
*531 U749
*532 U750
*533 U752
*534 U753
*535 U754
*536 U755
*537 HFSINV_25_fp_12
*538 HFSINV_108_fp_15
*539 HFSINV_121_fp_16
*540 HFSINV_101_fp_18
*541 ZCTSBUF_2527_f_1595
*542 ZCTSBUF_2528_f_1614
*543 ZCTSBUF_3295_f_1616
*544 ZCTSBUF_797_f_1628
*545 ZCTSBUF_6522_f_1690
*546 ZCTSBUF_6588_f_1691
*547 mem[0][7]
*548 mem[0][6]
*549 mem[0][5]
*550 mem[0][4]
*551 mem[0][3]
*552 mem[0][2]
*553 mem[0][1]
*554 mem[0][0]
*555 mem[1][7]
*556 mem[1][6]
*557 mem[1][5]
*558 mem[1][4]
*559 mem[1][3]
*560 mem[1][2]
*561 mem[1][1]
*562 mem[1][0]
*563 mem[2][7]
*564 mem[2][6]
*565 mem[2][5]
*566 mem[2][4]
*567 mem[2][3]
*568 mem[2][2]
*569 mem[2][1]
*570 mem[2][0]
*571 mem[3][7]
*572 mem[3][6]
*573 mem[3][5]
*574 mem[3][4]
*575 mem[3][3]
*576 mem[3][2]
*577 mem[3][1]
*578 mem[3][0]
*579 mem[4][7]
*580 mem[4][6]
*581 mem[4][5]
*582 mem[4][4]
*583 mem[4][3]
*584 mem[4][2]
*585 mem[4][1]
*586 mem[4][0]
*587 mem[5][7]
*588 mem[5][6]
*589 mem[5][5]
*590 mem[5][4]
*591 mem[5][3]
*592 mem[5][2]
*593 mem[5][1]
*594 mem[5][0]
*595 mem[6][7]
*596 mem[6][6]
*597 mem[6][5]
*598 mem[6][4]
*599 mem[6][3]
*600 mem[6][2]
*601 mem[6][1]
*602 mem[6][0]
*603 mem[7][7]
*604 mem[7][6]
*605 mem[7][5]
*606 mem[7][4]
*607 mem[7][3]
*608 mem[7][2]
*609 mem[7][1]
*610 mem[7][0]
*611 mem[8][7]
*612 mem[8][6]
*613 mem[8][5]
*614 mem[8][4]
*615 mem[8][3]
*616 mem[8][2]
*617 mem[8][1]
*618 mem[8][0]
*619 mem[9][7]
*620 mem[9][6]
*621 mem[9][5]
*622 mem[9][4]
*623 mem[9][3]
*624 mem[9][2]
*625 mem[9][1]
*626 mem[9][0]
*627 mem[10][7]
*628 mem[10][6]
*629 mem[10][5]
*630 mem[10][4]
*631 mem[10][3]
*632 mem[10][2]
*633 mem[10][1]
*634 mem[10][0]
*635 mem[11][7]
*636 mem[11][6]
*637 mem[11][5]
*638 mem[11][4]
*639 mem[11][3]
*640 mem[11][2]
*641 mem[11][1]
*642 mem[11][0]
*643 mem[12][7]
*644 mem[12][6]
*645 mem[12][5]
*646 mem[12][4]
*647 mem[12][3]
*648 mem[12][2]
*649 mem[12][1]
*650 mem[12][0]
*651 mem[13][7]
*652 mem[13][6]
*653 mem[13][5]
*654 mem[13][4]
*655 mem[13][3]
*656 mem[13][2]
*657 mem[13][1]
*658 mem[13][0]
*659 mem[14][7]
*660 mem[14][6]
*661 mem[14][5]
*662 mem[14][4]
*663 mem[14][3]
*664 mem[14][2]
*665 mem[14][1]
*666 mem[14][0]
*667 mem[15][7]
*668 mem[15][6]
*669 mem[15][5]
*670 mem[15][4]
*671 mem[15][3]
*672 mem[15][2]
*673 mem[15][1]
*674 mem[15][0]
*675 n153
*676 n154
*677 n155
*678 n156
*679 n157
*680 n158
*681 n159
*682 n160
*683 n161
*684 n162
*685 n163
*686 n164
*687 n165
*688 n166
*689 n167
*690 n168
*691 n169
*692 n170
*693 n171
*694 n172
*695 n173
*696 n174
*697 n175
*698 n176
*699 n177
*700 n178
*701 n179
*702 n180
*703 n181
*704 n182
*705 n183
*706 n184
*707 n185
*708 n186
*709 n187
*710 n188
*711 n189
*712 n190
*713 n191
*714 n192
*715 n193
*716 n194
*717 n195
*718 n196
*719 n197
*720 n198
*721 n199
*722 n200
*723 n201
*724 n202
*725 n203
*726 n204
*727 n205
*728 n206
*729 n207
*730 n208
*731 n209
*732 n210
*733 n211
*734 n212
*735 n213
*736 n214
*737 n215
*738 n216
*739 n217
*740 n218
*741 n219
*742 n220
*743 n221
*744 n222
*745 n223
*746 n224
*747 n225
*748 n226
*749 n227
*750 n228
*751 n229
*752 n230
*753 n231
*754 n232
*755 n233
*756 n234
*757 n235
*758 n236
*759 n237
*760 n238
*761 n239
*762 n240
*763 n241
*764 n242
*765 n243
*766 n244
*767 n245
*768 n246
*769 n247
*770 n248
*771 n249
*772 n250
*773 n251
*774 n252
*775 n253
*776 n254
*777 n255
*778 n256
*779 n257
*780 n258
*781 n259
*782 n260
*783 n261
*784 n262
*785 n263
*786 n264
*787 n265
*788 n266
*789 n267
*790 n268
*791 n269
*792 n270
*793 n271
*794 n272
*795 n273
*796 n274
*797 n275
*798 n276
*799 n277
*800 n278
*801 n279
*802 n280
*803 n281
*804 n282
*805 n283
*806 n284
*807 n285
*808 n286
*809 n287
*810 n288
*811 n289
*812 n290
*813 n291
*814 n292
*815 n293
*816 n294
*817 n295
*818 n296
*819 n297
*820 n298
*821 n299
*822 n300
*823 n301
*824 n302
*825 n303
*826 HFSNET_25
*827 HFSNET_26
*828 HFSNET_27
*829 HFSNET_28
*830 HFSNET_29
*831 HFSNET_30
*832 HFSNET_31
*833 HFSNET_32
*834 HFSNET_20
*835 HFSNET_33
*836 HFSNET_34
*837 HFSNET_35
*838 HFSNET_36
*839 HFSNET_37
*840 HFSNET_38
*841 HFSNET_39
*842 tmp_net0
*843 HFSNET_41
*844 ropt_net_1883
*845 tmp_net2
*846 tmp_net3
*847 tmp_net6
*848 copt_gre_net_1882
*849 tmp_net8
*850 tmp_net9
*851 ropt_net_1884
*852 ropt_net_1885
*853 tmp_net12
*854 ropt_net_1886
*855 tmp_net14
*856 tmp_net15
*857 HFSNET_21
*858 ropt_net_1887
*859 ropt_net_1888
*860 tmp_net18
*861 ropt_net_1889
*862 tmp_net20
*863 tmp_net21
*864 ropt_net_1890
*865 ropt_net_1891
*866 HFSNET_23
*867 HFSNET_22
*868 HFSNET_24
*869 tmp_net24
*870 tmp_net25
*871 ropt_net_1892
*872 ropt_net_1893
*873 HFSNET_18
*874 tmp_net28
*875 tmp_net29
*876 ropt_net_1894
*877 tmp_net32
*878 tmp_net34
*879 tmp_net36
*880 tmp_net38
*881 tmp_net39
*882 tmp_net42
*883 tmp_net44
*884 tmp_net45
*885 tmp_net48
*886 cts0
*887 tmp_net1775
*888 tmp_net1776
*889 tmp_net1777
*890 tmp_net1778
*891 tmp_net1779
*892 tmp_net1780
*893 tmp_net1781
*894 ZCTSNET_628
*895 tmp_net1782
*896 tmp_net1783
*897 tmp_net1784
*898 tmp_net1785
*899 tmp_net1786
*900 tmp_net1787
*901 tmp_net1788
*902 copt_net_1856
*903 tmp_net1790
*904 tmp_net1791
*905 copt_net_1857
*906 tmp_net1793
*907 tmp_net1794
*908 copt_net_1858
*909 tmp_net1796
*910 tmp_net1797
*911 copt_net_1859
*912 tmp_net1799
*913 tmp_net1800
*914 copt_net_1860
*915 tmp_net1802
*916 tmp_net1803
*917 copt_net_1861
*918 tmp_net1805
*919 tmp_net1806
*920 copt_net_1862
*921 tmp_net1808
*922 tmp_net1809
*923 copt_net_1863
*924 tmp_net1811
*925 tmp_net1812
*926 tmp_net1813
*927 tmp_net1814
*928 copt_net_1864
*929 tmp_net1816
*930 tmp_net1817
*931 tmp_net1819
*932 tmp_net1820
*933 copt_net_1866
*934 tmp_net1822
*935 tmp_net1823
*936 copt_net_1867
*937 tmp_net1825
*938 tmp_net1826
*939 copt_net_1868
*940 tmp_net1828
*941 tmp_net1829
*942 tmp_net1831
*943 tmp_net1832
*944 tmp_net1834
*945 tmp_net1835
*946 tmp_net1837
*947 tmp_net1838
*948 tmp_net1839
*949 tmp_net1840
*950 tmp_net1841
*951 tmp_net1842
*952 tmp_net1843
*953 tmp_net1844
*954 ZCTSNET_692
*955 tmp_net1845
*956 tmp_net1846
*957 tmp_net1847
*958 tmp_net1848
*959 HFSNET_9
*960 tmp_net1849
*961 n454
*962 tmp_net1850
*963 tmp_net1851
*964 tmp_net1852
*965 tmp_net1853
*966 tmp_net1854
*967 tmp_net1855
*968 HFSNET_1
*969 n478
*970 n479
*971 n480
*972 HFSNET_0
*973 n482
*974 n483
*975 n484
*976 n485
*977 n486
*978 n487
*979 n488
*980 n489
*981 n490
*982 n491
*983 n492
*984 n493
*985 n494
*986 n495
*987 n496
*988 n497
*989 n498
*990 n499
*991 n500
*992 n508
*993 n509
*994 n510
*995 n511
*996 n519
*997 n520
*998 n521
*999 n522
*1000 n530
*1001 n531
*1002 n532
*1003 n533
*1004 n541
*1005 n542
*1006 n543
*1007 n544
*1008 n552
*1009 n553
*1010 n554
*1011 n555
*1012 n563
*1013 n564
*1014 n565
*1015 n566
*1016 n574
*1017 n575
*1018 n576
*1019 n577
*1020 ZCTSNET_770
*1021 n581
*1022 n582
*1023 n583
*1024 n584
*1025 n585
*1026 n586
*1027 n591
*1028 n592
*1029 n593
*1030 n594
*1031 n595
*1032 n596
*1033 n597
*1034 n598
*1035 n600
*1036 n601
*1037 n602
*1038 n603
*1039 n604
*1040 n605
*1041 n606
*1042 n607
*1043 n608
*1044 n609
*1045 n610
*1046 n611
*1047 wr_ptr[4]
*1048 wr_ptr[3]
*1049 wr_ptr[2]
*1050 wr_ptr[1]
*1051 wr_ptr[0]
*1052 rd_ptr[4]
*1053 rd_ptr[3]
*1054 rd_ptr[2]
*1055 rd_ptr[1]
*1056 rd_ptr[0]
*1057 HFSNET_10
*1058 HFSNET_13
*1059 HFSNET_14
*1060 HFSNET_16
*1061 ZCTSNET_810
*1062 ZCTSNET_829
*1063 ZCTSNET_831
*1064 ZCTSNET_843
*1065 ZCTSNET_905
*1066 ZCTSNET_906

*PORTS

*1 I *C 31.296 61.689
*2 I *C 0.143 43.608
*3 I *C 0.143 39.352
*4 I *C 0.143 35.096
*5 I *C 0.143 31.144
*6 I *C 0.143 26.888
*7 I *C 0.143 22.936
*8 I *C 0.143 18.680
*9 I *C 0.143 14.424
*10 I *C 0.143 10.472
*11 I *C 0.143 9.256
*12 I *C 0.143 8.040
*13 O *C 62.449 33.880
*14 O *C 62.449 30.232
*15 O *C 62.449 26.584
*16 O *C 62.449 23.240
*17 O *C 62.449 19.592
*18 O *C 62.449 20.504
*19 O *C 62.449 18.680
*20 O *C 62.449 16.856
*21 O *C 62.449 15.032
*22 O *C 62.449 13.208
*23 I *C 31.296 30.916
*24 I *C 31.296 30.916

*D_NET *1 0.3733817 //LENGTH 6.468 LUMPCC 0 DR

*CONN
*P *1 I *L 0 *C 31.296 61.573
*I *546:A I *L 0.578227 *C 30.992 56.072
*N *1:2 *C 30.992 55.890
*N *1:3 *C 30.992 56.059
*N *1:4 *C 30.992 56.072
*N *1:5 *C 31.132 56.072
*N *1:6 *C 31.144 56.086
*N *1:7 *C 31.144 61.531
*N *1:8 *C 31.144 61.544
*N *1:9 *C 31.284 61.544
*N *1:10 *C 31.296 61.544

*CAP
0 *1 0.005067417
1 *546:A 0.001
2 *1:2 0.0118586
3 *1:3 0.007157003
4 *1:4 0.01037468
5 *1:5 0.01037478
6 *1:6 0.1563081
7 *1:7 0.1563081
8 *1:8 0.005822355
9 *1:9 0.005822254
10 *1:10 0.003288383

*RES
0 *1 *1:10 0.09166668
1 *1:3 *546:A 1
2 *1:3 *1:2 0.2825
3 *1:4 *1:3 0.5
4 *1:5 *1:4 0.2325
5 *1:6 *1:5 0.5
6 *1:8 *1:7 0.5
7 *1:7 *1:6 9.723214
8 *1:10 *1:9 0.5
9 *1:9 *1:8 0.2325

*END

*D_NET *2 10.1383 //LENGTH 133.783 LUMPCC 0 DR

*CONN
*P *2 I *L 0 *C 0.258 43.608
*I *151:RSTB I *L 0.924894 *C 37.528 53.640
*I *156:RSTB I *L 0.924894 *C 44.520 56.680
*I *154:RSTB I *L 0.924894 *C 52.576 50.296
*I *144:RSTB I *L 0.924894 *C 52.728 46.952
*I *157:RSTB I *L 0.924894 *C 54.552 40.264
*I *149:RSTB I *L 0.924894 *C 55.008 39.960
*I *150:RSTB I *L 0.924894 *C 54.400 23.240
*I *147:RSTB I *L 0.924894 *C 54.856 19.896
*I *148:RSTB I *L 0.924894 *C 55.008 16.552
*I *155:RSTB I *L 0.924894 *C 54.704 13.208
*I *153:RSTB I *L 0.924894 *C 52.424 23.544
*I *152:RSTB I *L 0.924894 *C 52.424 26.888
*I *141:RSTB I *L 0.924894 *C 55.160 26.584
*I *142:RSTB I *L 0.924894 *C 55.160 30.232
*I *143:RSTB I *L 0.924894 *C 53.184 43.608
*I *145:RSTB I *L 0.924894 *C 52.880 49.992
*I *280:A2 I *L 0.520586 *C 52.424 54.552
*I *241:A3 I *L 0.472571 *C 55.920 55.768
*I *223:A2 I *L 0.475974 *C 56.224 54.248
*I *158:RSTB I *L 0.924894 *C 54.096 53.336
*I *146:RSTB I *L 0.924894 *C 48.776 53.336
*I *289:A2 I *L 0.520586 *C 47.894 54.577
*N *2:23 *C 48.761 54.552
*N *2:24 *C 48.776 54.538
*N *2:25 *C 54.096 53.154
*N *2:26 *C 54.096 53.324
*N *2:27 *C 54.083 53.336
*N *2:28 *C 56.224 54.066
*N *2:29 *C 56.224 54.236
*N *2:30 *C 56.211 54.248
*N *2:31 *C 56.072 54.248
*N *2:32 *C 56.072 54.552
*N *2:33 *C 55.920 55.755
*N *2:34 *C 55.920 54.566
*N *2:35 *C 55.920 54.552
*N *2:36 *C 52.424 54.370
*N *2:37 *C 52.424 54.540
*N *2:38 *C 52.438 54.552
*N *2:39 *C 53.792 54.552
*N *2:40 *C 53.792 54.538
*N *2:41 *C 53.792 53.349
*N *2:42 *C 53.792 53.336
*N *2:43 *C 52.867 49.992
*N *2:44 *C 53.171 43.608
*N *2:45 *C 55.159 30.232
*N *2:46 *C 55.159 26.584
*N *2:47 *C 52.424 26.875
*N *2:48 *C 52.424 23.558
*N *2:49 *C 52.424 24.760
*N *2:50 *C 52.438 24.760
*N *2:51 *C 54.704 13.222
*N *2:52 *C 55.008 16.370
*N *2:53 *C 55.008 16.540
*N *2:54 *C 54.995 16.552
*N *2:55 *C 54.718 16.552
*N *2:56 *C 54.704 16.538
*N *2:57 *C 54.552 16.552
*N *2:58 *C 54.856 19.714
*N *2:59 *C 54.856 19.884
*N *2:60 *C 54.843 19.896
*N *2:61 *C 54.553 19.896
*N *2:62 *C 54.552 19.896
*N *2:63 *C 54.552 21.416
*N *2:64 *C 54.400 21.416
*N *2:65 *C 54.400 23.227
*N *2:66 *C 54.248 23.240
*N *2:67 *C 54.248 24.747
*N *2:68 *C 54.248 24.760
*N *2:69 *C 54.843 24.760
*N *2:70 *C 54.856 24.774
*N *2:71 *C 54.856 26.584
*N *2:72 *C 55.008 26.584
*N *2:73 *C 55.008 30.232
*N *2:74 *C 55.008 31.434
*N *2:75 *C 54.995 31.448
*N *2:76 *C 54.413 31.448
*N *2:77 *C 54.400 31.462
*N *2:78 *C 55.008 39.778
*N *2:79 *C 55.008 39.948
*N *2:80 *C 54.995 39.960
*N *2:81 *C 54.413 39.960
*N *2:82 *C 54.400 39.960
*N *2:83 *C 54.551 40.264
*N *2:84 *C 54.400 40.264
*N *2:85 *C 54.248 40.264
*N *2:86 *C 54.248 43.595
*N *2:87 *C 54.235 43.608
*N *2:88 *C 52.742 43.608
*N *2:89 *C 52.728 43.608
*N *2:90 *C 52.728 46.952
*N *2:91 *C 52.728 49.992
*N *2:92 *C 52.728 49.993
*N *2:93 *C 52.728 50.296
*N *2:94 *C 52.576 50.114
*N *2:95 *C 52.576 50.284
*N *2:96 *C 52.576 50.296
*N *2:97 *C 51.830 50.296
*N *2:98 *C 51.816 50.309
*N *2:99 *C 51.816 53.323
*N *2:100 *C 51.816 53.336
*N *2:101 *C 48.790 53.336
*N *2:102 *C 48.776 53.349
*N *2:103 *C 48.776 53.640
*N *2:104 *C 48.763 53.640
*N *2:105 *C 44.520 53.640
*N *2:106 *C 44.520 56.666
*N *2:107 *C 44.520 55.768
*N *2:108 *C 44.672 55.768
*N *2:109 *C 44.672 53.958
*N *2:110 *C 44.659 53.944
*N *2:111 *C 44.520 53.944
*N *2:112 *C 37.528 53.944
*N *2:113 *C 37.528 53.458
*N *2:114 *C 37.528 53.628
*N *2:115 *C 37.528 53.641
*N *2:116 *C 0.606 53.640
*N *2:117 *C 0.592 53.627
*N *2:118 *C 0.592 43.622
*N *2:119 *C 0.579 43.608

*CAP
0 *2 0.01174248
1 *151:RSTB 0.001
2 *156:RSTB 0.001
3 *154:RSTB 0.001
4 *144:RSTB 0.001
5 *157:RSTB 0.001
6 *149:RSTB 0.001
7 *150:RSTB 0.001
8 *147:RSTB 0.001
9 *148:RSTB 0.001
10 *155:RSTB 0.001
11 *153:RSTB 0.001
12 *152:RSTB 0.001
13 *141:RSTB 0.001
14 *142:RSTB 0.001
15 *143:RSTB 0.001
16 *145:RSTB 0.001
17 *280:A2 0.001
18 *241:A3 0.001
19 *223:A2 0.001
20 *158:RSTB 0.001
21 *146:RSTB 0.001
22 *289:A2 0.04712422
23 *2:23 0.0455301
24 *2:24 0.03883014
25 *2:25 0.01303595
26 *2:26 0.008334348
27 *2:27 0.01499416
28 *2:28 0.01368614
29 *2:29 0.008984542
30 *2:30 0.005822141
31 *2:31 0.01786717
32 *2:32 0.01621584
33 *2:33 0.08357169
34 *2:34 0.08471522
35 *2:35 0.08130137
36 *2:36 0.0151564
37 *2:37 0.01045481
38 *2:38 0.05602956
39 *2:39 0.1331601
40 *2:40 0.04833284
41 *2:41 0.04833284
42 *2:42 0.09966687
43 *2:43 0.006761935
44 *2:44 0.02045555
45 *2:45 0.004161859
46 *2:46 0.003650913
47 *2:47 0.07486467
48 *2:48 0.04207369
49 *2:49 0.1210045
50 *2:50 0.06332744
51 *2:51 0.1219956
52 *2:52 0.01308549
53 *2:53 0.008383892
54 *2:54 0.01477944
55 *2:55 0.01477944
56 *2:56 0.1305229
57 *2:57 0.1572664
58 *2:58 0.01242581
59 *2:59 0.007724211
60 *2:60 0.011554
61 *2:61 0.011554
62 *2:62 0.22583
63 *2:63 0.08553632
64 *2:64 0.09640101
65 *2:65 0.09428129
66 *2:66 0.08302114
67 *2:67 0.0726294
68 *2:68 0.08983105
69 *2:69 0.02472458
70 *2:70 0.08110164
71 *2:71 0.08938193
72 *2:72 0.1664537
73 *2:73 0.2061144
74 *2:74 0.04387186
75 *2:75 0.02431481
76 *2:76 0.02431481
77 *2:77 0.3734761
78 *2:78 0.01649963
79 *2:79 0.01179803
80 *2:80 0.02328059
81 *2:81 0.02328059
82 *2:82 0.3902907
83 *2:83 0.003246926
84 *2:84 0.03116656
85 *2:85 0.1455945
86 *2:86 0.135633
87 *2:87 0.06934427
88 *2:88 0.06934427
89 *2:89 0.1599822
90 *2:90 0.2641022
91 *2:91 0.1365471
92 *2:92 0.008771681
93 *2:93 0.01782912
94 *2:94 0.01711391
95 *2:95 0.0124123
96 *2:96 0.0384544
97 *2:97 0.03117599
98 *2:98 0.1288358
99 *2:99 0.1288358
100 *2:100 0.204012
101 *2:101 0.1193393
102 *2:102 0.009983158
103 *2:103 0.05332999
104 *2:104 0.1632488
105 *2:105 0.1760687
106 *2:106 0.03634835
107 *2:107 0.04646409
108 *2:108 0.1018383
109 *2:109 0.0928661
110 *2:110 0.00555674
111 *2:111 0.2615612
112 *2:112 0.2542715
113 *2:113 0.01738587
114 *2:114 0.01268427
115 *2:115 1.289065
116 *2:116 1.277978
117 *2:117 0.2986252
118 *2:118 0.2986252
119 *2:119 0.009963442

*RES
0 *2 *2:119 0.5723215
1 *2:29 *223:A2 1
2 *2:29 *2:28 0.2825
3 *2:30 *2:29 0.5
4 *2:34 *2:33 2.123214
5 *2:35 *2:34 0.5
6 *2:35 *2:32 0.2714286
7 *2:33 *241:A3 1
8 *2:45 *142:RSTB 1
9 *2:46 *141:RSTB 1
10 *2:56 *2:55 0.5
11 *2:56 *2:51 5.923215
12 *2:55 *2:54 0.4946429
13 *2:53 *148:RSTB 1
14 *2:53 *2:52 0.2825
15 *2:54 *2:53 0.5
16 *2:51 *155:RSTB 1
17 *2:62 *2:61 0.5
18 *2:62 *2:57 5.971429
19 *2:61 *2:60 0.5169643
20 *2:59 *147:RSTB 1
21 *2:59 *2:58 0.2825
22 *2:60 *2:59 0.5
23 *2:83 *157:RSTB 1
24 *2:82 *2:81 0.5
25 *2:82 *2:77 15.17589
26 *2:81 *2:80 1.0375
27 *2:79 *149:RSTB 1
28 *2:79 *2:78 0.2825
29 *2:80 *2:79 0.5
30 *2:74 *2:73 2.147322
31 *2:75 *2:74 0.5
32 *2:77 *2:76 0.5
33 *2:76 *2:75 1.0375
34 *2:65 *150:RSTB 1
35 *2:65 *2:64 3.233036
36 *2:70 *2:69 0.5
37 *2:69 *2:68 1.061607
38 *2:67 *2:66 2.690179
39 *2:68 *2:67 0.5
40 *2:68 *2:50 3.233036
41 *2:26 *158:RSTB 1
42 *2:26 *2:25 0.2825
43 *2:27 *2:26 0.5
44 *2:40 *2:39 0.5
45 *2:39 *2:38 2.41875
46 *2:39 *2:35 3.8
47 *2:41 *2:40 2.123214
48 *2:42 *2:41 0.5
49 *2:42 *2:27 0.5187501
50 *2:43 *145:RSTB 1
51 *2:44 *143:RSTB 1
52 *2:90 *144:RSTB 1
53 *2:90 *2:89 5.971429
54 *2:86 *2:85 5.947322
55 *2:87 *2:86 0.5
56 *2:89 *2:88 0.5
57 *2:89 *2:44 0.7901787
58 *2:88 *2:87 2.666072
59 *2:91 *2:90 5.428572
60 *2:91 *2:43 0.2473214
61 *2:92 *2:91 0.5
62 *2:95 *154:RSTB 1
63 *2:95 *2:94 0.2825
64 *2:96 *2:95 0.5
65 *2:96 *2:93 0.2714286
66 *2:37 *280:A2 1
67 *2:37 *2:36 0.2825001
68 *2:38 *2:37 0.5
69 *2:47 *152:RSTB 1
70 *2:49 *2:48 2.147322
71 *2:49 *2:47 3.775893
72 *2:50 *2:49 0.5
73 *2:48 *153:RSTB 1
74 *2:98 *2:97 0.5
75 *2:97 *2:96 1.333036
76 *2:99 *2:98 5.380357
77 *2:100 *2:99 0.5
78 *2:100 *2:42 3.528572
79 *2:102 *2:101 0.5
80 *2:102 *146:RSTB 1
81 *2:101 *2:100 5.404464
82 *2:23 *289:A2 1.734
83 *2:24 *2:23 1
84 *2:103 *2:102 0.5187501
85 *2:103 *2:24 1.604464
86 *2:104 *2:103 0.5
87 *2:109 *2:108 3.233036
88 *2:110 *2:109 0.5
89 *2:106 *156:RSTB 1
90 *2:114 *151:RSTB 1
91 *2:114 *2:113 0.2825
92 *2:115 *2:114 0.5
93 *2:115 *2:112 0.5410715
94 *2:117 *2:116 0.5
95 *2:116 *2:115 65.93302
96 *2:118 *2:117 17.86607
97 *2:119 *2:118 0.5
98 *2:107 *2:106 1.604464
99 *2:108 *2:107 0.2714286
100 *2:66 *2:65 0.2714286
101 *2:85 *2:84 0.2714286
102 *2:84 *2:83 0.2696429
103 *2:84 *2:82 0.5428572
104 *2:64 *2:63 0.2714286
105 *2:63 *2:62 2.714286
106 *2:57 *2:56 0.2714286
107 *2:71 *2:70 3.233036
108 *2:72 *2:71 0.2714286
109 *2:72 *2:46 0.2696429
110 *2:73 *2:72 6.514286
111 *2:73 *2:45 0.2696429
112 *2:112 *2:111 12.48572
113 *2:111 *2:110 0.2473214
114 *2:111 *2:105 0.5428572
115 *2:105 *2:104 7.575893
116 *2:93 *2:92 0.5410715
117 *2:32 *2:31 0.5428572
118 *2:31 *2:30 0.2473214

*END

*D_NET *3 3.672524 //LENGTH 56.937 LUMPCC 0 DR

*CONN
*P *3 I *L 0 *C 0.258 39.352
*I *189:A1 I *L 0.564384 *C 54.856 37.832
*N *3:2 *C 49.080 37.650
*N *3:3 *C 54.856 37.700
*N *3:4 *C 54.856 37.820
*N *3:5 *C 54.843 37.832
*N *3:6 *C 49.093 37.832
*N *3:7 *C 49.080 37.820
*N *3:8 *C 49.067 37.832
*N *3:9 *C 8.966 37.832
*N *3:10 *C 8.952 37.846
*N *3:11 *C 8.952 39.339
*N *3:12 *C 8.939 39.352

*CAP
0 *3 0.2556942
1 *189:A1 0.001
2 *3:2 0.01008064
3 *3:3 0.01479603
4 *3:4 0.008611904
5 *3:5 0.2285639
6 *3:6 0.2300465
7 *3:7 0.006522925
8 *3:8 1.286004
9 *3:9 1.286004
10 *3:10 0.04564226
11 *3:11 0.04564212
12 *3:12 0.2539153

*RES
0 *3 *3:12 15.50089
1 *3:4 *189:A1 1
2 *3:4 *3:3 0.1991667
3 *3:5 *3:4 0.5
4 *3:6 *3:5 10.26607
5 *3:7 *3:6 0.5
6 *3:7 *3:2 0.2825
7 *3:8 *3:7 0.5
8 *3:10 *3:9 0.5
9 *3:9 *3:8 71.60891
10 *3:12 *3:11 0.5
11 *3:11 *3:10 2.666071

*END

*D_NET *4 3.551163 //LENGTH 56.323 LUMPCC 0 DR

*CONN
*P *4 I *L 0 *C 0.258 35.096
*I *234:A1 I *L 0.564384 *C 50.448 34.488
*N *4:2 *C 50.448 34.356
*N *4:3 *C 50.448 34.476
*N *4:4 *C 50.462 34.488
*N *4:5 *C 51.329 34.488
*N *4:6 *C 51.500 34.488
*N *4:7 *C 51.512 34.474
*N *4:8 *C 51.512 34.198
*N *4:9 *C 51.498 34.184
*N *4:10 *C 18.998 34.184
*N *4:11 *C 18.984 34.198
*N *4:12 *C 18.984 35.995
*N *4:13 *C 18.971 36.008
*N *4:14 *C 0.454 36.008
*N *4:15 *C 0.440 35.995
*N *4:16 *C 0.440 35.110
*N *4:17 *C 0.427 35.096

*CAP
0 *4 0.007972743
1 *234:A1 0.001
2 *4:2 0.01279607
3 *4:3 0.006611946
4 *4:4 0.03513094
5 *4:5 0.05015767
6 *4:6 0.009986241
7 *4:7 0.01134145
8 *4:8 0.01134159
9 *4:9 1.028091
10 *4:10 1.028091
11 *4:11 0.06340969
12 *4:12 0.06340954
13 *4:13 0.5822374
14 *4:14 0.5822374
15 *4:15 0.02557705
16 *4:16 0.02557705
17 *4:17 0.00619381

*RES
0 *4 *4:17 0.3008929
1 *4:3 *234:A1 1
2 *4:3 *4:2 0.1991667
3 *4:4 *4:3 0.5
4 *4:6 *4:5 0.2841667
5 *4:7 *4:6 0.5
6 *4:8 *4:7 0.4946429
7 *4:9 *4:8 0.5
8 *4:11 *4:10 0.5
9 *4:10 *4:9 58.03749
10 *4:13 *4:12 0.5
11 *4:12 *4:11 3.208929
12 *4:14 *4:13 33.06607
13 *4:15 *4:14 0.5
14 *4:17 *4:16 0.5
15 *4:16 *4:15 1.580357
16 *4:5 *4:4 1.549107

*END

*D_NET *5 7.962413 //LENGTH 94.743 LUMPCC 0 DR

*CONN
*P *5 I *L 0 *C 0.258 31.144
*I *434:A2 I *L 0.53006 *C 11.992 32.360
*I *418:A2 I *L 0.53006 *C 14.880 34.488
*I *370:A2 I *L 0.53006 *C 9.894 37.832
*I *482:A2 I *L 0.53006 *C 12.600 37.832
*I *381:A2 I *L 0.53006 *C 17.038 34.488
*I *394:A2 I *L 0.53006 *C 16.704 41.176
*I *410:A2 I *L 0.53006 *C 25.368 32.360
*I *402:A2 I *L 0.53006 *C 31.904 32.360
*I *426:A2 I *L 0.53006 *C 41.024 32.360
*I *442:A2 I *L 0.53006 *C 41.163 35.704
*I *361:A2 I *L 0.53006 *C 44.976 32.360
*I *378:A2 I *L 0.53006 *C 49.688 32.360
*I *474:A2 I *L 0.53006 *C 34.283 31.144
*I *466:A2 I *L 0.53006 *C 34.321 37.832
*I *458:A2 I *L 0.53006 *C 19.729 31.144
*I *450:A2 I *L 0.53006 *C 23.058 31.144
*N *5:17 *C 22.480 30.962
*N *5:18 *C 22.495 31.144
*N *5:19 *C 22.480 31.132
*N *5:20 *C 22.466 31.144
*N *5:21 *C 19.440 30.962
*N *5:22 *C 19.455 31.144
*N *5:23 *C 19.440 31.132
*N *5:24 *C 19.454 31.144
*N *5:25 *C 22.024 31.144
*N *5:26 *C 22.024 31.158
*N *5:27 *C 33.120 32.178
*N *5:28 *C 34.047 37.832
*N *5:29 *C 34.032 37.819
*N *5:30 *C 34.032 37.238
*N *5:31 *C 34.046 37.224
*N *5:32 *C 34.474 37.224
*N *5:33 *C 34.488 37.211
*N *5:34 *C 34.336 31.144
*N *5:35 *C 34.336 31.158
*N *5:36 *C 34.336 32.360